
 OpenBabel09291712293D

 12 11  0  0  0  0  0  0  0  0999 V2000
    0.9347   -0.0825    0.0439 C   0  0  0  0  0  0  0  0  0  0  0  0
    2.4524   -0.0552    0.0252 C   0  0  0  0  0  0  0  0  0  0  0  0
    2.9874    0.9652   -0.9693 C   0  0  0  0  0  0  0  0  0  0  0  0
    4.4086    0.9494   -0.9585 O   0  0  0  0  0  0  0  0  0  0  0  0
    0.5774   -0.8241    0.7652 H   0  0  0  0  0  0  0  0  0  0  0  0
    0.5348   -0.3459   -0.9405 H   0  0  0  0  0  0  0  0  0  0  0  0
    0.5287    0.8929    0.3302 H   0  0  0  0  0  0  0  0  0  0  0  0
    2.8404   -1.0499   -0.2248 H   0  0  0  0  0  0  0  0  0  0  0  0
    2.8316    0.1725    1.0285 H   0  0  0  0  0  0  0  0  0  0  0  0
    2.6497    1.9772   -0.7236 H   0  0  0  0  0  0  0  0  0  0  0  0
    2.6554    0.7303   -1.9853 H   0  0  0  0  0  0  0  0  0  0  0  0
    4.6970    1.1778   -0.0584 H   0  0  0  0  0  0  0  0  0  0  0  0
  1  2  1  0  0  0  0
  1  5  1  0  0  0  0
  1  6  1  0  0  0  0
  1  7  1  0  0  0  0
  2  3  1  0  0  0  0
  2  8  1  0  0  0  0
  2  9  1  0  0  0  0
  3  4  1  0  0  0  0
  3 10  1  0  0  0  0
  3 11  1  0  0  0  0
  4 12  1  0  0  0  0
M  END
