
 OpenBabel09291715143D

 11  9  0  0  0  0  0  0  0  0999 V2000
    2.4554   -0.5345    1.4853 O   0  0  0  0  0  0  0  0  0  0  0  0
    3.4532   -0.6302    0.5873 C   0  0  0  0  0  0  0  0  0  0  0  0
    4.3292   -1.4737    0.6139 O   0  0  0  0  0  0  0  0  0  0  0  0
   -0.0957    0.5608   -0.3579 C   0  0  0  0  0  0  0  0  0  0  0  0
    1.0212    1.2399    0.2069 O   0  0  0  0  0  0  0  0  0  0  0  0
    1.8565    0.2020    1.2115 H   0  0  0  0  0  0  0  0  0  0  0  0
    3.3732    0.1607   -0.1781 H   0  0  0  0  0  0  0  0  0  0  0  0
   -0.9728    0.7428    0.2680 H   0  0  0  0  0  0  0  0  0  0  0  0
    0.1201   -0.5099   -0.3807 H   0  0  0  0  0  0  0  0  0  0  0  0
   -0.2713    0.9174   -1.3757 H   0  0  0  0  0  0  0  0  0  0  0  0
    0.8344    2.1937    0.0952 H   0  0  0  0  0  0  0  0  0  0  0  0
  1  2  1  0  0  0  0
  1  6  1  0  0  0  0
  2  3  2  0  0  0  0
  2  7  1  0  0  0  0
  4  5  1  0  0  0  0
  4  8  1  0  0  0  0
  4  9  1  0  0  0  0
  4 10  1  0  0  0  0
  5 11  1  0  0  0  0
M  END
